155903259
  -OEChem-01292216483D

 67 69  0     1  0  0  0  0  0999 V2000
   -5.2651    0.3853    2.1308 F   0  0  0  0  0  0  0  0  0  0  0  0
   -5.8314    2.2135    1.0849 F   0  0  0  0  0  0  0  0  0  0  0  0
   -4.0158    2.1639    2.2891 F   0  0  0  0  0  0  0  0  0  0  0  0
    1.8747   -1.8859   -1.5122 O   0  0  0  0  0  0  0  0  0  0  0  0
    0.0035    0.6408    0.8113 O   0  0  0  0  0  0  0  0  0  0  0  0
   -4.4964    0.3236   -0.6689 O   0  0  0  0  0  0  0  0  0  0  0  0
    3.7449    2.9461    1.9493 O   0  0  0  0  0  0  0  0  0  0  0  0
   -0.6890   -1.0865   -0.5681 N   0  0  0  0  0  0  0  0  0  0  0  0
    2.3460   -1.5920    0.7482 N   0  0  0  0  0  0  0  0  0  0  0  0
   -2.6719    1.4254    0.2686 N   0  0  0  0  0  0  0  0  0  0  0  0
    4.2828    3.4118   -0.2800 N   0  0  0  0  0  0  0  0  0  0  0  0
    5.1671   -3.1201    1.8606 N   0  0  0  0  0  0  0  0  0  0  0  0
   -0.4011   -3.4218   -0.4812 C   0  0  1  0  0  0  0  0  0  0  0  0
   -1.8334   -3.9081   -0.3288 C   0  0  0  0  0  0  0  0  0  0  0  0
   -1.4027   -3.1035   -1.5436 C   0  0  1  0  0  0  0  0  0  0  0  0
    0.1127   -2.1288    0.0777 C   0  0  1  0  0  0  0  0  0  0  0  0
   -1.5341   -1.6173   -1.6420 C   0  0  0  0  0  0  0  0  0  0  0  0
   -2.0815   -5.3814   -0.5422 C   0  0  0  0  0  0  0  0  0  0  0  0
   -2.7379   -3.3010    0.7122 C   0  0  0  0  0  0  0  0  0  0  0  0
    1.5277   -1.8669   -0.3343 C   0  0  0  0  0  0  0  0  0  0  0  0
   -0.7181    0.2182   -0.0939 C   0  0  0  0  0  0  0  0  0  0  0  0
   -1.7133    1.1335   -0.7618 C   0  0  2  0  0  0  0  0  0  0  0  0
   -1.0657    2.3878   -1.3950 C   0  0  0  0  0  0  0  0  0  0  0  0
    3.7515   -1.2850    0.6147 C   0  0  1  0  0  0  0  0  0  0  0  0
   -0.2991    3.2418   -0.3672 C   0  0  0  0  0  0  0  0  0  0  0  0
   -2.1514    3.2635   -2.0527 C   0  0  0  0  0  0  0  0  0  0  0  0
   -0.0789    1.9478   -2.4966 C   0  0  0  0  0  0  0  0  0  0  0  0
    4.0750    0.1111    1.1604 C   0  0  0  0  0  0  0  0  0  0  0  0
    3.6419    1.2203    0.2219 C   0  0  2  0  0  0  0  0  0  0  0  0
   -3.9901    0.9930    0.2272 C   0  0  0  0  0  0  0  0  0  0  0  0
    4.5427   -2.3102    1.3122 C   0  0  0  0  0  0  0  0  0  0  0  0
    4.4285    1.2436   -1.0918 C   0  0  0  0  0  0  0  0  0  0  0  0
    3.8964    2.6052    0.7865 C   0  0  0  0  0  0  0  0  0  0  0  0
   -4.7723    1.4370    1.4280 C   0  0  0  0  0  0  0  0  0  0  0  0
    4.3538    2.6954   -1.5233 C   0  0  0  0  0  0  0  0  0  0  0  0
    0.3660   -4.1612   -0.6712 H   0  0  0  0  0  0  0  0  0  0  0  0
   -1.3276   -3.5945   -2.5039 H   0  0  0  0  0  0  0  0  0  0  0  0
   -0.0235   -2.0721    1.1625 H   0  0  0  0  0  0  0  0  0  0  0  0
   -1.1580   -1.2393   -2.5976 H   0  0  0  0  0  0  0  0  0  0  0  0
   -2.5793   -1.3325   -1.5085 H   0  0  0  0  0  0  0  0  0  0  0  0
   -3.1132   -5.5503   -0.8676 H   0  0  0  0  0  0  0  0  0  0  0  0
   -1.4170   -5.8048   -1.3034 H   0  0  0  0  0  0  0  0  0  0  0  0
   -1.9179   -5.9336    0.3891 H   0  0  0  0  0  0  0  0  0  0  0  0
   -2.5647   -2.2363    0.8852 H   0  0  0  0  0  0  0  0  0  0  0  0
   -3.7849   -3.4159    0.4116 H   0  0  0  0  0  0  0  0  0  0  0  0
   -2.6021   -3.8126    1.6710 H   0  0  0  0  0  0  0  0  0  0  0  0
   -2.2464    0.6413   -1.5739 H   0  0  0  0  0  0  0  0  0  0  0  0
    1.9583   -1.6166    1.6871 H   0  0  0  0  0  0  0  0  0  0  0  0
    4.0266   -1.3394   -0.4442 H   0  0  0  0  0  0  0  0  0  0  0  0
   -2.3548    1.9285    1.0925 H   0  0  0  0  0  0  0  0  0  0  0  0
   -0.9155    3.4957    0.5006 H   0  0  0  0  0  0  0  0  0  0  0  0
    0.0161    4.1902   -0.8199 H   0  0  0  0  0  0  0  0  0  0  0  0
    0.6174    2.7609   -0.0157 H   0  0  0  0  0  0  0  0  0  0  0  0
   -1.7086    4.1207   -2.5729 H   0  0  0  0  0  0  0  0  0  0  0  0
   -2.8522    3.6591   -1.3094 H   0  0  0  0  0  0  0  0  0  0  0  0
   -2.7289    2.6933   -2.7891 H   0  0  0  0  0  0  0  0  0  0  0  0
   -0.5803    1.3412   -3.2591 H   0  0  0  0  0  0  0  0  0  0  0  0
    0.3600    2.8163   -3.0013 H   0  0  0  0  0  0  0  0  0  0  0  0
    0.7496    1.3577   -2.0897 H   0  0  0  0  0  0  0  0  0  0  0  0
    5.1547    0.2036    1.3452 H   0  0  0  0  0  0  0  0  0  0  0  0
    3.5983    0.2466    2.1411 H   0  0  0  0  0  0  0  0  0  0  0  0
    2.5684    1.1566    0.0100 H   0  0  0  0  0  0  0  0  0  0  0  0
    4.0173    0.5709   -1.8503 H   0  0  0  0  0  0  0  0  0  0  0  0
    5.4761    0.9641   -0.9226 H   0  0  0  0  0  0  0  0  0  0  0  0
    5.2292    3.0172   -2.0927 H   0  0  0  0  0  0  0  0  0  0  0  0
    3.4423    2.9087   -2.0903 H   0  0  0  0  0  0  0  0  0  0  0  0
    4.4735    4.4045   -0.1883 H   0  0  0  0  0  0  0  0  0  0  0  0
  1 34  1  0  0  0  0
  2 34  1  0  0  0  0
  3 34  1  0  0  0  0
  4 20  2  0  0  0  0
  5 21  2  0  0  0  0
  6 30  2  0  0  0  0
  7 33  2  0  0  0  0
  8 16  1  0  0  0  0
  8 17  1  0  0  0  0
  8 21  1  0  0  0  0
  9 20  1  0  0  0  0
  9 24  1  0  0  0  0
  9 48  1  0  0  0  0
 10 22  1  0  0  0  0
 10 30  1  0  0  0  0
 10 50  1  0  0  0  0
 11 33  1  0  0  0  0
 11 35  1  0  0  0  0
 11 67  1  0  0  0  0
 12 31  3  0  0  0  0
 13 14  1  0  0  0  0
 13 15  1  0  0  0  0
 13 16  1  0  0  0  0
 13 36  1  0  0  0  0
 14 15  1  0  0  0  0
 14 18  1  0  0  0  0
 14 19  1  0  0  0  0
 15 17  1  0  0  0  0
 15 37  1  0  0  0  0
 16 20  1  0  0  0  0
 16 38  1  0  0  0  0
 17 39  1  0  0  0  0
 17 40  1  0  0  0  0
 18 41  1  0  0  0  0
 18 42  1  0  0  0  0
 18 43  1  0  0  0  0
 19 44  1  0  0  0  0
 19 45  1  0  0  0  0
 19 46  1  0  0  0  0
 21 22  1  0  0  0  0
 22 23  1  0  0  0  0
 22 47  1  0  0  0  0
 23 25  1  0  0  0  0
 23 26  1  0  0  0  0
 23 27  1  0  0  0  0
 24 28  1  0  0  0  0
 24 31  1  0  0  0  0
 24 49  1  0  0  0  0
 25 51  1  0  0  0  0
 25 52  1  0  0  0  0
 25 53  1  0  0  0  0
 26 54  1  0  0  0  0
 26 55  1  0  0  0  0
 26 56  1  0  0  0  0
 27 57  1  0  0  0  0
 27 58  1  0  0  0  0
 27 59  1  0  0  0  0
 28 29  1  0  0  0  0
 28 60  1  0  0  0  0
 28 61  1  0  0  0  0
 29 32  1  0  0  0  0
 29 33  1  0  0  0  0
 29 62  1  0  0  0  0
 30 34  1  0  0  0  0
 32 35  1  0  0  0  0
 32 63  1  0  0  0  0
 32 64  1  0  0  0  0
 35 65  1  0  0  0  0
 35 66  1  0  0  0  0
M  END
> <PUBCHEM_COMPOUND_CID>
155903259

> <PUBCHEM_CONFORMER_RMSD>
1.2

> <PUBCHEM_CONFORMER_DIVERSEORDER>
1
30
86
15
75
52
85
78
91
62
96
68
79
66
21
41
58
89
22
73
82
13
81
36
10
23
49
9
57
19
97
44
2
93
60
87
18
77
83
92
69
94
28
3
95
72
43
51
26
55
16
88
27
74
80
65
70
11
5
38
90
61
47
42
25
31
34
17
39
50
40
33
12
6
84
64
67
35
71
59
8
24
29
48
54
76
56
32
53
14
45
7
20
37
4
46
63

> <PUBCHEM_MMFF94_PARTIAL_CHARGES>
34
1 -0.34
10 -0.73
11 -0.73
12 -0.56
13 -0.19
14 -0.19
15 -0.19
16 0.46
17 0.4
18 0.09
19 0.09
2 -0.34
20 0.57
21 0.57
22 0.36
24 0.5
29 0.06
3 -0.34
30 0.57
31 0.36
33 0.57
34 1.08
35 0.3
36 0.1
37 0.1
4 -0.57
48 0.37
5 -0.57
50 0.37
6 -0.57
67 0.37
7 -0.57
8 -0.66
9 -0.73

> <PUBCHEM_EFFECTIVE_ROTOR_COUNT>
12.6

> <PUBCHEM_PHARMACOPHORE_FEATURES>
12
1 10 donor
1 11 donor
1 12 acceptor
1 4 acceptor
1 5 acceptor
1 6 acceptor
1 7 acceptor
1 9 donor
3 14 18 19 hydrophobe
4 23 25 26 27 hydrophobe
5 11 29 32 33 35 rings
6 8 13 14 15 16 17 rings

> <PUBCHEM_HEAVY_ATOM_COUNT>
35

> <PUBCHEM_ATOM_DEF_STEREO_COUNT>
6

> <PUBCHEM_ATOM_UDEF_STEREO_COUNT>
0

> <PUBCHEM_BOND_DEF_STEREO_COUNT>
0

> <PUBCHEM_BOND_UDEF_STEREO_COUNT>
0

> <PUBCHEM_ISOTOPIC_ATOM_COUNT>
0

> <PUBCHEM_COMPONENT_COUNT>
1

> <PUBCHEM_CACTVS_TAUTO_COUNT>
-1

> <PUBCHEM_CONFORMER_ID>
094AE51B00000001

> <PUBCHEM_MMFF94_ENERGY>
85.2601

> <PUBCHEM_FEATURE_SELFOVERLAP>
60.898

> <PUBCHEM_SHAPE_FINGERPRINT>
10006869 2 18340483477830779439
10010297 198 17823435936045546726
10165383 225 18339093648310662492
10190108 129 17901684974232894643
10670039 82 17973159815146319844
10871710 139 17902235838554162860
1100329 8 18341040840231897082
11115154 58 17197106958909889703
11445158 3 18188487952605917414
11513181 2 17917440860132249815
11578080 2 16197097722715491351
12107698 1 17969221136271255832
12156800 1 17907612407015850653
12160290 23 17911766323359590047
12422481 6 18114467756172331485
12608794 3 18265882592948472799
12633257 1 18270955757116107868
12788726 201 17330856014875954357
13140716 1 18409164411361245578
13583140 156 17533205367390378851
140371 6 17830735722243944958
14395042 24 18192987347940527979
14784336 7 16325409900600984831
14790565 3 18341898472212564809
14840074 17 18187654630082135157
14910700 183 18335710386665314163
14955137 171 18049724019103462498
150020 26 18046898282788796816
16067690 210 16558488442569536025
17980427 23 17915150517809271018
1979834 28 18120678859034579257
20642791 268 17698453126688550369
20739085 24 18264223434487393565
21033648 144 18339623625746781340
21033648 29 17838019678056651064
21458453 9 18263104217897336683
21583282 1 17967830352719435654
23559900 14 17034739430824713447
283562 15 17762614392923422906
392239 28 18339077069456506357
469060 322 18191852449944987479
5081480 168 16985472612554112236
5252454 2 18410575132567797268
57527293 21 18261686891453238771
57527358 35 15503807099239265111
5912855 24 18265052616531145322
6287921 2 18198633120377520125

> <PUBCHEM_SHAPE_MULTIPOLES>
650.08
10.4
6.33
1.99
3
4.54
-0.07
-4.83
-5.79
-1.69
0.91
-0.6
-1.06
-2.68

> <PUBCHEM_SHAPE_SELFOVERLAP>
1357.016

> <PUBCHEM_SHAPE_VOLUME>
371.5

> <PUBCHEM_COORDINATE_TYPE>
2
5
10

$$$$
